SXgrid.m
function mpc = QHgrid
%% MATPOWER Case Format : Version 2
mpc.version = '2';

%%-----  Power Flow Data  -----%%
%% system MVA base
mpc.baseMVA = 100;
mpc.ESno = '3';
%% bus data
%	bus_i	type	Pd	Qd	Gs	Bs	area	Vm	Va	baseKV	zone	Vmax	Vmin
mpc.bus = [
1	1	72 	0	0	0	4	1	0	800	10	1.1	0.9	;
2	1	0 	0	0	0	4	1	0	800	14	1.1	0.9	;
4	1	0 	0	0	0	4	1	0	800	18	1.1	0.9	;
6	1	0 	0	0	0	4	1	0	800	21	1.1	0.9	;
7	1	54 	0	0	0	4	1	0	800	24	1.1	0.9	;
8	1	0 	0	0	0	4	1	0	800	25	1.1	0.9	;
9	1	0 	0	0	0	4	1	0	800	28	1.1	0.9	;
11	1	0 	0	0	0	4	1	0	800	31	1.1	0.9	;
12	1	0 	0	0	0	4	1	0	800	32	1.1	0.9	;
13	1	0 	0	0	0	4	1	0	800	33	1.1	0.9	;
15	1	0 	0	0	0	4	1	0	800	35	1.1	0.9	;
16	1	0 	0	0	0	4	1	0	800	36	1.1	0.9	;
17	1	72 	0	0	0	4	1	0	800	39	1.1	0.9	;
18	1	0 	0	0	0	4	1	0	800	40	1.1	0.9	;
19	1	0 	0	0	0	4	1	0	800	43	1.1	0.9	;
21	1	72 	0	0	0	4	1	0	800	48	1.1	0.9	;
91	1	0 	0	0	0	4	1	0	800	2424	1.1	0.9	;
92	1	0 	0	0	0	4	1	0	800	2425	1.1	0.9	;
93	1	0 	0	0	0	4	1	0	800	2426	1.1	0.9	;
94	1	0 	0	0	0	4	1	0	800	2427	1.1	0.9	;
95	1	0 	0	0	0	4	1	0	800	2428	1.1	0.9	;
96	1	0 	0	0	0	4	1	0	800	2429	1.1	0.9	;
97	1	0 	0	0	0	4	1	0	800	2430	1.1	0.9	;
98	1	0 	0	0	0	4	1	0	800	2443	1.1	0.9	;
99	1	0 	0	0	0	4	1	0	800	2445	1.1	0.9	;
106	1	0 	0	0	0	4	1	0	800	5675	1.1	0.9	;
107	1	0 	0	0	0	4	1	0	800	5676	1.1	0.9	;
108	1	72 	0	0	0	4	1	0	800	5677	1.1	0.9	;
119	1	0 	0	0	0	4	1	0	800	5797	1.1	0.9	;
120	1	0 	0	0	0	4	1	0	800	5798	1.1	0.9	;
121	1	0 	0	0	0	4	1	0	800	5799	1.1	0.9	;
122	1	0 	0	0	0	4	1	0	800	5800	1.1	0.9	;
139	2	0 	0	0	0	4	1	0	800	121	1.1	0.9	;
140	2	0 	0	0	0	4	1	0	800	120	1.1	0.9	;
141	2	0 	0	0	0	4	1	0	800	7047	1.1	0.9	;
142	2	0 	0	0	0	4	1	0	800	7048	1.1	0.9	;
144	1	1500 	0	0	0	4	1	0	525	9	1.1	0.9	;
3	1	200 	0	0	0	4	1	0	363	16	1.1	0.9	;
5	1	0 	0	0	0	4	1	0	363	20	1.1	0.9	;
10	1	1000 	0	0	0	4	1	0	363	30	1.1	0.9	;
14	1	299 	0	0	0	4	1	0	363	34	1.1	0.9	;
20	1	0 	0	0	0	4	1	0	363	45	1.1	0.9	;
22	1	88 	0	0	0	4	1	0	363	240	1.1	0.9	;
23	1	300 	0	0	0	4	1	0	363	244	1.1	0.9	;
24	1	408 	0	0	0	4	1	0	363	245	1.1	0.9	;
25	1	0 	0	0	0	4	1	0	363	246	1.1	0.9	;
26	1	0 	0	0	0	4	1	0	363	247	1.1	0.9	;
27	1	36 	0	0	0	4	1	0	363	248	1.1	0.9	;
28	1	258 	0	0	0	4	1	0	363	249	1.1	0.9	;
29	1	787 	0	0	0	4	1	0	363	250	1.1	0.9	;
30	1	313 	0	0	0	4	1	0	363	251	1.1	0.9	;
31	1	612 	0	0	0	4	1	0	363	252	1.1	0.9	;
32	1	311 	0	0	0	4	1	0	363	253	1.1	0.9	;
33	1	172 	0	0	0	4	1	0	363	254	1.1	0.9	;
34	1	273 	0	0	0	4	1	0	363	255	1.1	0.9	;
35	1	455 	0	0	0	4	1	0	363	256	1.1	0.9	;
36	1	430 	0	0	0	4	1	0	363	257	1.1	0.9	;
37	1	350 	0	0	0	4	1	0	363	258	1.1	0.9	;
38	1	248 	0	0	0	4	1	0	363	259	1.1	0.9	;
39	1	575 	0	0	0	4	1	0	363	260	1.1	0.9	;
40	1	160 	0	0	0	4	1	0	363	261	1.1	0.9	;
41	1	691 	0	0	0	4	1	0	363	262	1.1	0.9	;
42	1	525 	0	0	0	4	1	0	363	263	1.1	0.9	;
43	1	705 	0	0	0	4	1	0	363	264	1.1	0.9	;
44	1	80 	0	0	0	4	1	0	363	265	1.1	0.9	;
45	1	551 	0	0	0	4	1	0	363	266	1.1	0.9	;
46	1	214 	0	0	0	4	1	0	363	267	1.1	0.9	;
47	1	414 	0	0	0	4	1	0	363	268	1.1	0.9	;
48	1	242 	0	0	0	4	1	0	363	269	1.1	0.9	;
49	1	287 	0	0	0	4	1	0	363	270	1.1	0.9	;
50	1	0 	0	0	0	4	1	0	363	271	1.1	0.9	;
51	1	322 	0	0	0	4	1	0	363	272	1.1	0.9	;
52	1	60 	0	0	0	4	1	0	363	273	1.1	0.9	;
53	1	236 	0	0	0	4	1	0	363	274	1.1	0.9	;
54	1	0 	0	0	0	4	1	0	363	275	1.1	0.9	;
55	1	323 	0	0	0	4	1	0	363	276	1.1	0.9	;
56	1	328 	0	0	0	4	1	0	363	277	1.1	0.9	;
57	1	416 	0	0	0	4	1	0	363	278	1.1	0.9	;
58	1	0 	0	0	0	4	1	0	363	279	1.1	0.9	;
59	1	300 	0	0	0	4	1	0	363	280	1.1	0.9	;
60	3	100 	0	0	0	4	1	0	363	281	1.1	0.9	;
61	1	400 	0	0	0	4	1	0	363	282	1.1	0.9	;
62	1	290 	0	0	0	4	1	0	363	283	1.1	0.9	;
63	1	1052 	0	0	0	4	1	0	363	284	1.1	0.9	;
64	1	36 	0	0	0	4	1	0	363	285	1.1	0.9	;
65	1	410 	0	0	0	4	1	0	363	286	1.1	0.9	;
66	1	200 	0	0	0	4	1	0	363	287	1.1	0.9	;
67	1	300 	0	0	0	4	1	0	363	347	1.1	0.9	;
68	1	0 	0	0	0	4	1	0	363	348	1.1	0.9	;
69	1	72 	0	0	0	4	1	0	363	521	1.1	0.9	;
70	1	692 	0	0	0	4	1	0	363	522	1.1	0.9	;
71	1	24 	0	0	0	4	1	0	363	523	1.1	0.9	;
72	1	183 	0	0	0	4	1	0	363	524	1.1	0.9	;
73	1	373 	0	0	0	4	1	0	363	525	1.1	0.9	;
74	1	426 	0	0	0	4	1	0	363	526	1.1	0.9	;
75	1	69 	0	0	0	4	1	0	363	527	1.1	0.9	;
76	1	182 	0	0	0	4	1	0	363	528	1.1	0.9	;
77	1	60 	0	0	0	4	1	0	363	529	1.1	0.9	;
78	1	158 	0	0	0	4	1	0	363	530	1.1	0.9	;
79	1	40 	0	0	0	4	1	0	363	531	1.1	0.9	;
80	1	40 	0	0	0	4	1	0	363	532	1.1	0.9	;
81	1	162 	0	0	0	4	1	0	363	533	1.1	0.9	;
82	1	458 	0	0	0	4	1	0	363	534	1.1	0.9	;
83	1	350 	0	0	0	4	1	0	363	535	1.1	0.9	;
84	1	80 	0	0	0	4	1	0	363	536	1.1	0.9	;
85	1	80 	0	0	0	4	1	0	363	537	1.1	0.9	;
86	1	40 	0	0	0	4	1	0	363	538	1.1	0.9	;
87	1	101 	0	0	0	4	1	0	363	539	1.1	0.9	;
88	1	201 	0	0	0	4	1	0	363	540	1.1	0.9	;
89	1	149 	0	0	0	4	1	0	363	541	1.1	0.9	;
90	1	40 	0	0	0	4	1	0	363	542	1.1	0.9	;
100	1	0 	0	0	0	4	1	0	363	2450	1.1	0.9	;
101	1	149 	0	0	0	4	1	0	363	2486	1.1	0.9	;
102	1	20 	0	0	0	4	1	0	363	2549	1.1	0.9	;
103	1	162 	0	0	0	4	1	0	363	2550	1.1	0.9	;
104	1	115 	0	0	0	4	1	0	363	4481	1.1	0.9	;
105	1	0 	0	0	0	4	1	0	363	4482	1.1	0.9	;
109	1	0 	0	0	0	4	1	0	363	5678	1.1	0.9	;
110	1	169 	0	0	0	4	1	0	363	5727	1.1	0.9	;
111	1	169 	0	0	0	4	1	0	363	5728	1.1	0.9	;
112	1	154 	0	0	0	4	1	0	363	5729	1.1	0.9	;
113	1	169 	0	0	0	4	1	0	363	5734	1.1	0.9	;
114	1	500 	0	0	0	4	1	0	363	5735	1.1	0.9	;
115	1	81 	0	0	0	4	1	0	363	5736	1.1	0.9	;
116	1	0 	0	0	0	4	1	0	363	5737	1.1	0.9	;
117	1	345 	0	0	0	4	1	0	363	5738	1.1	0.9	;
118	1	0 	0	0	0	4	1	0	363	5739	1.1	0.9	;
123	1	0 	0	0	0	4	1	0	363	5953	1.1	0.9	;
124	1	218 	0	0	0	4	1	0	363	5954	1.1	0.9	;
125	1	0 	0	0	0	4	1	0	363	5955	1.1	0.9	;
126	1	200 	0	0	0	4	1	0	363	5956	1.1	0.9	;
127	1	0 	0	0	0	4	1	0	363	5957	1.1	0.9	;
128	1	0 	0	0	0	4	1	0	363	5958	1.1	0.9	;
129	1	200 	0	0	0	4	1	0	363	5959	1.1	0.9	;
130	1	200 	0	0	0	4	1	0	363	6071	1.1	0.9	;
131	1	0 	0	0	0	4	1	0	363	6072	1.1	0.9	;
132	1	0 	0	0	0	4	1	0	363	6073	1.1	0.9	;
133	1	45 	0	0	0	4	1	0	363	6173	1.1	0.9	;
134	1	140 	0	0	0	4	1	0	363	6174	1.1	0.9	;
135	1	200 	0	0	0	4	1	0	363	6175	1.1	0.9	;
136	1	200 	0	0	0	4	1	0	363	7665	1.1	0.9	;
137	1	580 	0	0	0	4	1	0	363	7666	1.1	0.9	;
138	1	200 	0	0	0	4	1	0	363	7667	1.1	0.9	;
143	1	1100 	0	0	0	4	1	0	363	3	1.1	0.9	;

];
%% branch data
%	fbus	tbus	r	x	b	rateA	rateB	rateC	ratio	angle	status	angmin	angmax
mpc.branch = [
2	67	0.0080 	0.0130 	0.0300 	1200	1200	2	0	0	1	-360	360	1
59	88	0.0050 	0.0440 	0.0450 	1200	1200	2	0	0	1	-360	360	1
59	130	0.0050 	0.0440 	0.0450 	1200	1200	2	0	0	1	-360	360	1
63	105	0.0210 	0.0028 	0.0460 	800	800	2	0	0	1	-360	360	1
45	39	0.0440 	0.0240 	0.0150 	800	800	2	0	0	1	-360	360	1
5	52	0.0020 	0.0380 	0.0460 	800	800	2	0	0	1	-360	360	1
41	117	0.0330 	0.0056 	0.0030 	800	800	2	0	0	1	-360	360	1
134	143	0.0310 	0.0040 	0.0220 	800	800	2	0	0	1	-360	360	1
51	116	0.0036 	0.0214 	0.0260 	800	800	2	0	0	1	-360	360	1
65	82	0.0033 	0.0198 	0.0410 	1200	1200	2	0	0	1	-360	360	1
5	35	0.0120 	0.0410 	0.0040 	800	800	2	0	0	1	-360	360	1
45	44	0.0220 	0.0270 	0.0150 	1200	1200	2	0	0	1	-360	360	1
89	90	0.0090 	0.0300 	0.0400 	800	800	2	0	0	1	-360	360	1
29	104	0.0110 	0.0480 	0.0280 	800	800	2	0	0	1	-360	360	1
59	112	0.0080 	0.0330 	0.0140 	1800	1800	2	0	0	1	-360	360	1
5	132	0.0480 	0.0080 	0.0440 	1200	1200	2	0	0	1	-360	360	1
70	85	0.0180 	0.0110 	0.0260 	1200	1200	2	0	0	1	-360	360	1
81	102	0.0050 	0.0280 	0.0191 	800	800	2	0	0	1	-360	360	1
58	57	0.0290 	0.0090 	0.0070 	800	800	2	0	0	1	-360	360	1
58	26	0.0360 	0.0230 	0.0440 	800	800	2	0	0	1	-360	360	1
84	125	0.0500 	0.0034 	0.0638 	800	800	2	0	0	1	-360	360	1
31	125	0.0032 	0.0188 	0.0430 	800	800	2	0	0	1	-360	360	1
64	55	0.0150 	0.0070 	0.0460 	800	800	2	0	0	1	-360	360	1
34	76	0.0037 	0.0222 	0.0060 	800	800	2	0	0	1	-360	360	1
78	79	0.0080 	0.0490 	0.0100 	800	800	2	0	0	1	-360	360	1
3	130	0.0330 	0.0470 	0.0170 	1200	1200	2	0	0	1	-360	360	1
3	88	0.0330 	0.0470 	0.0170 	1200	1200	2	0	0	1	-360	360	1
42	123	0.0010 	0.0145 	0.0210 	800	800	2	0	0	1	-360	360	1
55	53	0.0330 	0.0170 	0.0260 	1200	1200	2	0	0	1	-360	360	1
55	53	0.0330 	0.0170 	0.0260 	1200	1200	2	0	0	1	-360	360	1
38	75	0.0340 	0.0020 	0.0340 	800	800	2	0	0	1	-360	360	1
47	10	0.0310 	0.0430 	0.0020 	800	800	2	0	0	1	-360	360	1
80	114	0.0270 	0.0023 	0.0445 	800	800	2	0	0	1	-360	360	1
74	86	0.0060 	0.0120 	0.0260 	800	800	2	0	0	1	-360	360	1
10	9	0.0110 	0.0085 	0.0252 	2500	2500	2	0	0	1	-360	360	1
10	9	0.0110 	0.0085 	0.0252 	2500	2500	2	0	0	1	-360	360	1
10	65	0.0260 	0.0050 	0.0210 	2500	2500	2	0	0	1	-360	360	1
5	104	0.0330 	0.0300 	0.0390 	800	800	2	0	0	1	-360	360	1
5	104	0.0330 	0.0300 	0.0390 	800	800	2	0	0	1	-360	360	1
32	137	0.0400 	0.0440 	0.0080 	800	800	2	0	0	1	-360	360	1
38	68	0.0090 	0.0460 	0.0170 	1200	1200	2	0	0	1	-360	360	1
51	68	0.0024 	0.0143 	0.0230 	1200	1200	2	0	0	1	-360	360	1
118	123	0.0330 	0.0097 	0.0190 	800	800	2	0	0	1	-360	360	1
75	76	0.0180 	0.0160 	0.0170 	800	800	2	0	0	1	-360	360	1
22	14	0.0010 	0.0012 	0.0222 	800	800	2	0	0	1	-360	360	1
60	89	0.0030 	0.0380 	0.0200 	800	800	2	0	0	1	-360	360	1
5	143	0.0134 	0.0080 	0.0410 	1200	1200	2	0	0	1	-360	360	1
87	109	0.0101 	0.0599 	0.0240 	800	800	2	0	0	1	-360	360	1
37	81	0.0200 	0.0460 	0.0470 	800	800	2	0	0	1	-360	360	1
3	87	0.0270 	0.0100 	0.0140 	1200	1200	2	0	0	1	-360	360	1
5	134	0.0320 	0.0050 	0.0505 	1200	1200	2	0	0	1	-360	360	1
43	70	0.0360 	0.0190 	0.0130 	800	800	2	0	0	1	-360	360	1
24	133	0.0051 	0.0331 	0.0250 	800	800	2	0	0	1	-360	360	1
14	61	0.0040 	0.0236 	0.0330 	800	800	2	0	0	1	-360	360	0
25	23	0.0230 	0.0390 	0.0340 	800	800	2	0	0	1	-360	360	1
26	25	0.0250 	0.0160 	0.0450 	800	800	2	0	0	1	-360	360	1
4	93	0.0210 	0.0063 	0.0200 	2500	2500	2	0	0	1	-360	360	1
91	93	0.0290 	0.0130 	0.0420 	2500	2500	2	0	0	1	-360	360	1
31	84	0.0060 	0.0340 	0.0240 	800	800	2	0	0	1	-360	360	1
71	72	0.0180 	0.0080 	0.0210 	800	800	2	0	0	1	-360	360	1
30	73	0.0340 	0.0470 	0.0320 	800	800	2	0	0	1	-360	360	1
61	104	0.0044 	0.0263 	0.0020 	800	800	2	0	0	1	-360	360	1
35	66	0.0140 	0.0210 	0.0080 	800	800	2	0	0	1	-360	360	1
60	128	0.0025 	0.0147 	0.0490 	800	800	2	0	0	1	-360	360	1
78	128	0.0013 	0.0077 	0.0060 	800	800	2	0	0	1	-360	360	1
55	82	0.0028 	0.0164 	0.0440 	800	800	2	0	0	1	-360	360	1
60	112	0.0180 	0.0420 	0.0460 	2500	2500	2	0	0	1	-360	360	1
56	49	0.0100 	0.0040 	0.0050 	1800	1800	2	0	0	1	-360	360	1
82	138	0.0130 	0.0170 	0.0010 	800	800	2	0	0	1	-360	360	1
29	28	0.0410 	0.0410 	0.0230 	800	800	2	0	0	1	-360	360	1
52	77	0.0140 	0.0470 	0.0250 	800	800	2	0	0	1	-360	360	1
62	61	0.0450 	0.0090 	0.0010 	800	800	2	0	0	1	-360	360	1
70	74	0.0080 	0.0360 	0.0380 	800	800	2	0	0	1	-360	360	1
63	114	0.0013 	0.0100 	0.0170 	800	800	2	0	0	1	-360	360	1
38	76	0.0056 	0.0334 	0.0490 	800	800	2	0	0	1	-360	360	1
17	15	0.0220 	0.0430 	0.0390 	800	800	2	0	0	1	-360	360	1
45	32	0.0029 	0.0172 	0.0050 	800	800	2	0	0	1	-360	360	1
55	83	0.0028 	0.0165 	0.0210 	800	800	2	0	0	1	-360	360	1
31	43	0.0470 	0.0220 	0.0200 	800	800	2	0	0	1	-360	360	1
114	118	0.0500 	0.0054 	0.0140 	800	800	2	0	0	1	-360	360	1
7	124	0.0010 	0.0050 	0.0410 	800	800	2	0	0	1	-360	360	1
57	36	0.0320 	0.0130 	0.0060 	800	800	2	0	0	1	-360	360	1
91	100	0.0100 	0.0085 	0.0252 	800	800	2	0	0	1	-360	360	1
42	29	0.0180 	0.0390 	0.0430 	800	800	2	0	0	1	-360	360	1
55	126	0.0310 	0.0090 	0.0220 	800	800	2	0	0	1	-360	360	1
112	129	0.0037 	0.0219 	0.0300 	800	800	2	0	0	1	-360	360	1
34	135	0.0080 	0.0051 	0.0952 	800	800	2	0	0	1	-360	360	1
60	78	0.0190 	0.0410 	0.0050 	800	800	2	0	0	1	-360	360	1
46	72	0.0210 	0.0360 	0.0280 	800	800	2	0	0	1	-360	360	1
30	31	0.0350 	0.0130 	0.0090 	800	800	2	0	0	1	-360	360	1
56	100	0.0500 	0.0220 	0.0210 	2500	2500	2	0	0	1	-360	360	1
39	38	0.0120 	0.0450 	0.0490 	800	800	2	0	0	1	-360	360	1
53	36	0.0430 	0.0230 	0.0120 	800	800	2	0	0	1	-360	360	1
33	30	0.0360 	0.0260 	0.0420 	800	800	2	0	0	1	-360	360	1
66	111	0.0110 	0.0030 	0.0130 	800	800	2	0	0	1	-360	360	1
70	113	0.0470 	0.0030 	0.0370 	800	800	2	0	0	1	-360	360	1
14	110	0.0070 	0.0300 	0.0160 	800	800	2	0	0	1	-360	360	1
2	97	0.0080 	0.0130 	0.0300 	2500	2500	2	0	0	1	-360	360	1
91	96	0.0460 	0.0100 	0.0090 	2500	2500	2	0	0	1	-360	360	1
96	97	0.0010 	0.0115 	0.0280 	2500	2500	2	0	0	1	-360	360	1
5	131	0.0120 	0.0470 	0.0350 	800	800	2	0	0	1	-360	360	1
77	131	0.0390 	0.0490 	0.0110 	800	800	2	0	0	1	-360	360	1
37	103	0.0270 	0.0270 	0.0260 	800	800	2	0	0	1	-360	360	1
4	6	0.0350 	0.0420 	0.0090 	800	800	2	0	0	1	-360	360	1
47	74	0.0029 	0.0163 	0.0020 	800	800	2	0	0	1	-360	360	1
77	101	0.0440 	0.0040 	0.0380 	800	800	2	0	0	1	-360	360	1
34	35	0.0050 	0.0080 	0.0090 	800	800	2	0	0	1	-360	360	1
42	41	0.0470 	0.0390 	0.0210 	800	800	2	0	0	1	-360	360	1
61	40	0.0150 	0.0120 	0.0220 	800	800	2	0	0	1	-360	360	1
3	48	0.0420 	0.0100 	0.0120 	2500	2500	2	0	0	1	-360	360	1
14	104	0.0450 	0.0080 	0.0040 	800	800	2	0	0	1	-360	360	1
55	65	0.0013 	0.0150 	0.0080 	2500	2500	2	0	0	1	-360	360	1
78	127	0.0350 	0.0015 	0.0273 	800	800	2	0	0	1	-360	360	1
40	24	0.0060 	0.0300 	0.0100 	800	800	2	0	0	1	-360	360	1
83	138	0.0400 	0.0480 	0.0100 	800	800	2	0	0	1	-360	360	1
63	41	0.0150 	0.0470 	0.0490 	800	800	2	0	0	1	-360	360	1
118	119	0.0450 	0.0085 	0.0252 	2500	2500	2	0	0	1	-360	360	1
104	115	0.0220 	0.0260 	0.0070 	800	800	2	0	0	1	-360	360	1
54	36	0.0220 	0.0050 	0.0410 	800	800	2	0	0	1	-360	360	1
54	53	0.0500 	0.0460 	0.0420 	800	800	2	0	0	1	-360	360	1
40	123	0.0079 	0.0470 	0.0250 	800	800	2	0	0	1	-360	360	1
24	23	0.0210 	0.0130 	0.0100 	800	800	2	0	0	1	-360	360	1
63	117	0.0260 	0.0040 	0.0742 	800	800	2	0	0	1	-360	360	1
28	27	0.0422 	0.1568 	0.0240 	800	800	2	0	0	1	-360	360	1
37	36	0.0470 	0.0140 	0.0140 	800	800	2	0	0	1	-360	360	1
39	137	0.0120 	0.0390 	0.0190 	800	800	2	0	0	1	-360	360	1
51	100	0.0150 	0.0020 	0.0150 	2500	2500	2	0	0	1	-360	360	1
49	48	0.0300 	0.0120 	0.0070 	2500	2500	2	0	0	1	-360	360	1
4	5	0.0320 	0.0085 	0.0252 	2500	2500	2	0	0	1	-360	360	1
20	144	0.0250 	0.0070 	0.0200 	2500	2500	2	0	0	1	-360	360	1
20	53	0.0310 	0.0060 	0.0280 	2500	2500	2	0	0	1	-360	360	1
50	32	0.0110 	0.0180 	0.0180 	2500	2500	2	0	0	1	-360	360	1
50	51	0.0030 	0.0050 	0.0390 	2500	2500	2	0	0	1	-360	360	1
8	9	0.0440 	0.0010 	0.0060 	2500	2500	2	0	0	1	-360	360	1
8	4	0.0410 	0.0057 	0.0480 	2500	2500	2	0	0	1	-360	360	1
21	19	0.0320 	0.0170 	0.0330 	2500	2500	2	0	0	1	-360	360	1
65	69	0.0200 	0.0330 	0.0280 	2500	2500	2	0	0	1	-360	360	1
77	132	0.0300 	0.0070 	0.0060 	2500	2500	2	0	0	1	-360	360	1
2	87	0.0120 	0.0120 	0.0320 	2500	2500	2	0	0	1	-360	360	1
2	87	0.0120 	0.0120 	0.0320 	2500	2500	2	0	0	1	-360	360	1
117	118	0.0190 	0.0041 	0.0450 	2500	2500	2	0	0	1	-360	360	1
119	120	0.0460 	0.0240 	0.0350 	2500	2500	2	0	0	1	-360	360	1
19	121	0.0240 	0.0200 	0.0410 	2500	2500	2	0	0	1	-360	360	1
120	121	0.0040 	0.0081 	0.0050 	2500	2500	2	0	0	1	-360	360	1
2	106	0.0130 	0.0070 	0.0110 	2500	2500	2	0	0	1	-360	360	1
106	107	0.0190 	0.0064 	0.0110 	2500	2500	2	0	0	1	-360	360	1
107	108	0.0100 	0.0280 	0.0490 	2500	2500	2	0	0	1	-360	360	1
1	2	0.0030 	0.0050 	0.0380 	2500	2500	2	0	0	1	-360	360	1
3	136	0.0022 	0.0255 	0.0500 	2500	2500	2	0	0	1	-360	360	1
94	95	0.0290 	0.0115 	0.0160 	2500	2500	2	0	0	1	-360	360	1
2	95	0.0080 	0.0130 	0.0300 	2500	2500	2	0	0	1	-360	360	1
91	94	0.0360 	0.0490 	0.0190 	2500	2500	2	0	0	1	-360	360	1
91	92	0.0100 	0.0062 	0.0200 	2500	2500	2	0	0	1	-360	360	1
4	92	0.0070 	0.0420 	0.0440 	2500	2500	2	0	0	1	-360	360	1
4	122	0.0080 	0.0049 	0.0430 	2500	2500	2	0	0	1	-360	360	1
119	122	0.0010 	0.0250 	0.0180 	2500	2500	2	0	0	1	-360	360	1
18	19	0.0330 	0.0420 	0.0500 	2500	2500	2	0	0	1	-360	360	1
18	9	0.0010 	0.0040 	0.0010 	2500	2500	2	0	0	1	-360	360	1
13	19	0.0290 	0.0040 	0.0500 	2500	2500	2	0	0	1	-360	360	1
13	9	0.0480 	0.0430 	0.0230 	2500	2500	2	0	0	1	-360	360	1
10	46	0.0090 	0.0330 	0.0340 	2500	2500	2	0	0	1	-360	360	1
7	4	0.0120 	0.0014 	0.0260 	2500	2500	2	0	0	1	-360	360	1
30	46	0.0010 	0.0300 	0.0250 	2500	2500	2	0	0	1	-360	360	1
12	139	0.0460 	0.0072 	0.0030 	2500	2500	2	0	0	1	-360	360	1
19	98	0.0300 	0.0410 	0.0060 	2500	2500	2	0	0	1	-360	360	1
98	141	0.0370 	0.0090 	0.0230 	2500	2500	2	0	0	1	-360	360	1
11	9	0.0480 	0.0460 	0.0310 	2500	2500	2	0	0	1	-360	360	1
11	140	0.0270 	0.0072 	0.0060 	2500	2500	2	0	0	1	-360	360	1
12	9	0.0430 	0.0240 	0.0300 	2500	2500	2	0	0	1	-360	360	1
99	142	0.0340 	0.0090 	0.0310 	2500	2500	2	0	0	1	-360	360	1
19	99	0.0060 	0.0420 	0.0240 	2500	2500	2	0	0	1	-360	360	1
14	143	0.0040 	0.0160 	0.0180 	2500	2500	2	0	0	1	-360	360	1
56	67	0.0480 	0.0130 	0.0340 	2500	2500	2	0	0	1	-360	360	1
56	67	0.0480 	0.0130 	0.0340 	2500	2500	2	0	0	1	-360	360	1
17	16	0.0070 	0.0390 	0.0350 	2500	2500	2	0	0	1	-360	360	1
16	9	0.0320 	0.0037 	0.0010 	2500	2500	2	0	0	1	-360	360	1
15	9	0.0080 	0.0037 	0.0050 	2500	2500	2	0	0	1	-360	360	1
6	9	0.0260 	0.0057 	0.0270 	2500	2500	2	0	0	1	-360	360	1
65	82	0.0033 	0.0198 	0.0410 	800	800	2	0	0	1	-360	360	0
33	46	0.0360 	0.0260 	0.0420 	800	800	2	0	0	1	-360	360	0
30	74	0.0010 	0.0300 	0.0250 	800	800	2	0	0	1	-360	360	0
39	38	0.0120 	0.0450 	0.0490 	800	800	2	0	0	1	-360	360	0
59	88	0.0050 	0.0440 	0.0450 	800	800	2	0	0	1	-360	360	0
59	130	0.0050 	0.0440 	0.0450 	800	800	2	0	0	1	-360	360	0
48	130	0.0290 	0.0100 	0.0160 	800	800	2	0	0	1	-360	360	0
56	87	0.0080 	0.0080 	0.0300 	800	800	2	0	0	1	-360	360	0
2	67	0.0080 	0.0130 	0.0300 	800	800	2	0	0	1	-360	360	0
14	143	0.0040 	0.0160 	0.0200 	800	800	2	0	0	1	-360	360	0
134	143	0.0310 	0.0040 	0.0220 	800	800	2	0	0	1	-360	360	0
23	123	0.0079 	0.0470 	0.0250 	800	800	2	0	0	1	-360	360	0
5	35	0.0120 	0.0410 	0.0040 	800	800	2	0	0	1	-360	360	0
44	45	0.0220 	0.0270 	0.0150 	800	800	2	0	0	1	-360	360	0
90	129	0.0090 	0.0300 	0.0400 	800	800	2	0	0	1	-360	360	0
102	125	0.0050 	0.0380 	0.0191 	800	800	2	0	0	1	-360	360	0
70	85	0.0090 	0.0300 	0.0340 	800	800	2	0	0	1	-360	360	0
36	126	0.0120 	0.0380 	0.0260 	800	800	2	0	0	1	-360	360	0
10	65	0.0260 	0.0050 	0.0210 	800	800	2	0	0	1	-360	360	0
59	112	0.0460 	0.0260 	0.0030 	800	800	2	0	0	1	-360	360	0
58	81	0.0300 	0.0300 	0.0060 	800	800	2	0	0	1	-360	360	0
43	118	0.0360 	0.0190 	0.0130 	800	800	2	0	0	1	-360	360	0
34	76	0.0037 	0.0222 	0.0060 	800	800	2	0	0	1	-360	360	0
34	35	0.0050 	0.0080 	0.0090 	800	800	2	0	0	1	-360	360	0
9	10	0.0110 	0.0085 	0.0252 	800	800	2	0	0	1	-360	360	0
53	55	0.0330 	0.0170 	0.0260 	800	800	2	0	0	1	-360	360	0


];
%%



mpc.gen = [
1	600	0	600	-400	1.1	100	1	1200	0	0	0	0	0	0	0	0	0	120	0	0	0.404	1
7	600	0	600	-400	1.1	100	1	945	0	0	0	0	0	0	0	0	0	94.5	0	0	0.404	1
17	0	0	300	-200	1.1	100	1	630	0	0	0	0	0	0	0	0	0	63	0	0	0.404	1
21	661	0	600	-400	1.1	100	1	1320	0	0	0	0	0	0	0	0	0	132	0	0	0.404	1
23	0	0	440	0	1.1	100	1	800	0	0	0	0	0	0	0	0	0	80	0	0	0.404	1
33	600	0	580	0	1.1	100	0	1200	0	0	0	0	0	0	0	0	0	120	0	0	0.404	1
44	900	0	816	0	1.1	100	1	1380	0	0	0	0	0	0	0	0	0	138	0	0	0.404	1
52	600	0	646	0	1.1	100	1	1336	0	0	0	0	0	0	0	0	0	133.6	0	0	0.404	1
59	1030	0	406	0	1.1	100	1	1055	0	0	0	0	0	0	0	0	0	105.5	0	0	0.404	1
60	1669	0	820	0	1.1	100	1	1675	0	0	0	0	0	0	0	0	0	167.5	0	0	0.404	1
64	330	0	408	0	1.1	100	1	660	0	0	0	0	0	0	0	0	0	66	0	0	0.404	1
69	600	0	740	0	1.1	100	1	1200	0	0	0	0	0	0	0	0	0	120	0	0	0.404	1
77	600	0	580	0	1.1	100	1	1200	0	0	0	0	0	0	0	0	0	120	0	0	0.404	1
79	600	0	370	0	1.1	100	1	650	0	0	0	0	0	0	0	0	0	60	0	0	0.404	1
84	1200	0	638	0	1.1	100	1	1320	0	0	0	0	0	0	0	0	0	132	0	0	0.404	1
85	1200	0	740	0	1.1	100	1	1200	0	0	0	0	0	0	0	0	0	120	0	0	0.404	1
87	710	0	44	0	1.1	100	1	816	0	0	0	0	0	0	0	0	0	81.6	0	0	0.404	1
90	600	0	360	0	1.1	100	1	700	0	0	0	0	0	0	0	0	0	60	0	0	0.404	1
102	630	0	408	0	1.1	100	1	660	0	0	0	0	0	0	0	0	0	66	0	0	0.404	2
105	0	0	408	0	1.1	100	0	780	0	0	0	0	0	0	0	0	0	66	0	0	0.404	1
108	800	0	600	-400	1.1	100	1	1200	0	0	0	0	0	0	0	0	0	120	0	0	0.404	1
112	245	0	0	0	1.1	100	0	845	0	0	0	0	0	0	0	0	0	84.5	0	0	0.404	1
116	300	0	370	0	1.1	100	1	720	0	0	0	0	0	0	0	0	0	60	0	0	0.404	1
136	1200	0	816	0	1.1	100	1	1320	0	0	0	0	0	0	0	0	0	132	0	0	0.404	1
137	600	0	408	0	1.1	100	0	660	0	0	0	0	0	0	0	0	0	66	0	0	0.404	1
138	600	0	408	0	1.1	100	0	660	0	0	0	0	0	0	0	0	0	66	0	0	0.404	1
139	540	0	540	0	1.1	100	1	660	0	0	0	0	0	0	0	0	0	66	0	0	0.404	1
140	540	0	540	0	1.1	100	1	660	0	0	0	0	0	0	0	0	0	66	0	0	0.404	1
141	460	0	460	0	1.1	100	1	660	0	0	0	0	0	0	0	0	0	66	0	0	0.404	1
142	460	0	460	0	1.1	100	1	660	0	0	0	0	0	0	0	0	0	66	0	0	0.404	1
22	600	0	369	0	1.1	100	1	600	0	0	0	0	0	0	0	0	0	60	0	0	0.198	1
27	600	0	370	0	1.1	100	0	600	0	0	0	0	0	0	0	0	0	60	0	0	0.198	1
80	600	0	370	0	1.1	100	1	600	0	0	0	0	0	0	0	0	0	60	0	0	0.198	1
86	600	0	370	0	1.1	100	1	600	0	0	0	0	0	0	0	0	0	60	0	0	0.198	1
133	270	0	162	0	1.1	100	1	500	0	0	0	0	0	0	0	0	0	27	0	0	0.198	1


];

%%-----  OPF Data  -----%%
%% generator cost data
%	1	startup	shutdown	n	x1	y1	...	xn	yn
%	2	startup	shutdown	n	c(n-1)	...	c0
mpc.gencost = [
2	0	0	3	0.01	40	0	2.42	182	;
2	0	0	3	0.01	40	0	2.42	182	;
2	0	0	3	0.01	40	0	2.42	182	;
2	0	0	3	0.01	40	0	2.42	182	;
2	0	0	3	0.01	40	0	2.42	182	;
2	0	0	3	0.01	40	0	2.42	182	;
2	0	0	3	0.01	40	0	2.42	182	;
2	0	0	3	0.01	40	0	2.42	182	;
2	0	0	3	0.01	40	0	2.42	182	;
2	0	0	3	0.01	40	0	2.42	182	;
2	0	0	3	0.01	40	0	2.42	182	;
2	0	0	3	0.01	40	0	2.42	182	;
2	0	0	3	0.01	40	0	2.42	182	;
2	0	0	3	0.01	40	0	2.42	182	;
2	0	0	3	0.01	40	0	2.42	182	;
2	0	0	3	0.01	40	0	2.42	182	;
2	0	0	3	0.01	40	0	2.42	182	;
2	0	0	3	0.01	40	0	2.42	182	;
2	0	0	3	0.01	40	0	2.42	182	;
2	0	0	3	0.01	40	0	2.42	182	;
2	0	0	3	0.01	40	0	2.42	182	;
2	0	0	3	0.01	40	0	2.42	182	;
2	0	0	3	0.01	40	0	2.42	182	;
2	0	0	3	0.01	40	0	2.42	182	;
2	0	0	3	0.01	40	0	2.42	182	;
2	0	0	3	0.01	40	0	2.42	182	;
2	0	0	3	0.01	40	0	2.42	182	;
2	0	0	3	0.01	40	0	2.42	182	;
2	0	0	3	0.01	40	0	2.42	182	;
2	0	0	3	0.01	40	0	2.42	182	;
2	0	0	3	0.01	40	0	2.42	125	;
2	0	0	3	0.01	40	0	2.42	125	;
2	0	0	3	0.01	40	0	2.42	125	;
2	0	0	3	0.01	40	0	2.42	125	;
2	0	0	3	0.01	40	0	2.42	125	;


];

%% 

mpc.CO2cost=0.006; %万元/t;
mpc.Rwgen=[
    %wind turbine  bus   forced rate   MTTR   Number of windturbine  cut_in windspeed
    %cut_out windspeed  rated windspeed  380万元/MW，单机1.5MW   
    %operation cost 万元/MWh
	
1	109	0.05	50	331 	2	20	10	570	6.7	;
2	71	0.05	50	267 	2	20	10	570	6.7	;
3	124	0.05	50	210 	2	20	10	570	6.7	;
4	57	0.05	50	150 	2	20	10	570	6.7	;
5	29	0.05	50	147 	2	20	10	570	6.7	;
6	26	0.05	50	120 	2	20	10	570	6.7	;
7	63	0.05	50	80 	2	20	10	570	6.7	;
8	127	0.05	50	67 	2	20	10	570	6.7	;


    ];